**$ENCRYPTED_LIB
**$INTERFACE
* PSpice Model Editor - Version 16.2.0
*$
* LM2940-N_5P0
*****************************************************************************
* (C) Copyright 2015 Texas Instruments Incorporated. All rights reserved.
*****************************************************************************
** This model is designed as an aid for customers of Texas Instruments.
** TI and its licensors and suppliers make no warranties, either expressed
** or implied, with respect to this model, including the warranties of
** merchantability or fitness for a particular purpose. The model is
** provided solely on an "as is" basis. The entire risk as to its quality
** and performance is with the customer.
*****************************************************************************
*
** Released by: WEBENCH Design Center, Texas Instruments Inc.
* Part: LM2940-N_5P0
* Date: 19JAN2015 
* Model Type: TRANSIENT
* Simulator: PSPICE
* Simulator Version: 16.2.0.p001
* EVM Order Number:
* EVM Users Guide:
* Datasheet:SNVS769J-MARCH 2000-REVISED DECEMBER 2014
*
* Model Version: Final 1.00
*
*****************************************************************************
*
* Updates:
*
* Final 1.00
* Release to Web
*
*****************************************************************************
.SUBCKT LM2940-N_5P0_TRANS IN OUT GND_0 GND_1
$CDNENCSTART
eee8c5c7a2bc4b01f045f303678664e7916da0bae22e8cb0bba041dd67c69ce448ea70148a9ac1670c8926c1ac5057c8ccfcd77bf87ca9dc4f8813c382e6645e
9afa1f10a7f457ea7674bbc8caf0d23df5264df10727304625e291a4eb73354117a4c595173f9f7b53ac72d70a8189ad566cde02d81ac5acf7e09c50315c254b
93d3808648446fd7acab1d0766be876c7c36e6136ecf8bf9428dfb821fe74a76d7503313cbdf0f42dddec70af0ca2d20c9ab9398c9185a897b828a0b3bb58d65
705d459f50f7a08caf1922b60cad7ad54cb34a6f6f4f982a83463dd640f012e500d3e0b087c73744223ce7cfbb6e26d9bf70c9fbff0bffd41824c5765c836636
9649d5e06a512d14706b807646b803711fbda18090328ec9f0a9d287d61510c503d6c5d38e36ad2c24fdfd9bb2e10b0799a1d75606970dc235a5ce2a989b791d
a5d158a0fc11634f706b807646b80371c9da099ce416dcb0d32ee1f27e0d56e3644126c9831a96bd3934d3e765192634e4163e42c2393867209f01559f92242c
e9f419af62bfe95ecc0121b5e20e2076c72e677679789a89508e95ff7173491c9f7df7e1d8537137763d73e9d3a8d5e0790072b4d0c3967ff712ef101aa78c06
0a74212461f65cb92e1bbe5dba9805b5cb82e1066e82af78bf1ee911780421dda0843499cab0f237abe0bcd93618b4a6e941baebfc5a0b9a43e348b5f546a9b3
bc8ee2299b220803050fc75d6128ce26d0d1ac4fb07345ed6954020319aab50fe71f71e1875841713934d3e765192634e4163e42c2393867209f01559f92242c
5aa875be979324eb706b807646b8037108273b14643ac6bb24dd4c0d12a0d89daad0cae5ebf3019a3934d3e765192634e4163e42c2393867209f01559f92242c
22cc75479b3d980a706b807646b80371c9da099ce416dcb0978b3e87ef4193663a8d0e744922d2c25a4b0aa49b1e7f91949e0297405d1edcf712ef101aa78c06
a6e6cbd161b941d8706b807646b80371c9da099ce416dcb0278e93e0fae4409f644126c9831a96bd3934d3e765192634e4163e42c2393867209f01559f92242c
b67df0d3ab862a12706b807646b803711fbda18090328ec9763d73e9d3a8d5e072b9f96a35ffb3f617a4c595173f9f7b53ac72d70a8189ad39998b7f1e9e767e
d70b17c9c4ed7e9a706b807646b80371ad4b46fc3edc4c839dfb367b6dc631eb873a1433bbff1ec660a188d940e604c11933952b4dcad44cddbcbfc1bd38a8ed
67d2eff95da56274d7503313cbdf0f42dddec70af0ca2d20c9ab9398c9185a89d3f222223dae97485e3f812a79759d70151de34581b8d18f7c9088c32b73483f
4b6085f2012636675a0aa31c52cddba976617f42cd5d956b3934d3e765192634e4163e42c23938674720b59447cd63c63c9f7e88d6a8a0d6456b157b666c97e7
e9f419af62bfe95ebf230db17611f82f8fa97f4081b734eb6f7b98e75b088b137208a85e1aefd30aa61dbc6176f11e29484ea5e06d94a032cbd5ee2fe0f73abb
6589144859c4b12fb5f1c17ee7956303a0843499cab0f237abe0bcd93618b4a6e941baebfc5a0b9a4b7abe26522f83a4886ce8f98ab909076c747285cbd82912
cefa4323af94c7c2706b807646b80371be53eafe8c5d7c4c019d18592831cfc362d766f77596a54b17a4c595173f9f7b53ac72d70a8189ad39998b7f1e9e767e
a3ce589fda26bc39706b807646b8037163d1ebe60620f47a8ff84965ac0438988f1d0e3b3309a749042f0c0c78bb0debd7503313cbdf0f42252e2e475f7c1aa5
1e36f10390632b7b706b807646b8037188f237f17078bb3e5828604f05b2247e7f0d6b2739374f9a146c7f47970ca091ac6a06391c26b0c6a2c852a1a470e0c8
24fdfd9bb2e10b0799a1d75606970dc2329ffca68bd72704a5cd0a6ea46fe42629c7cadee1d50f4aef6a6e722f2b3cd043ab3b7139328ecc199efa2b9e773a3a
10f459d39ee6f8ae706b807646b803711d9223c84a3d114583287330550de32f779b22f520b198b7ad4b46fc3edc4c831c90ae9fb53b7a285b0f81211b67e8f3
88b96b7c831faa4a41097083f6b3a209d7503313cbdf0f42dddec70af0ca2d20c9ab9398c9185a89d3f222223dae97485e3f812a79759d70cbe3317409d56a01
bbf0a766f49a242c2637e9cac2aa5cea2cecad1ebf804c4bf467148f06ca8e43a0843499cab0f237abe0bcd93618b4a6e941baebfc5a0b9a43e348b5f546a9b3
0be1bd08545f4ec3706b807646b8037181aec34a846648c9eeca062ffe77a65917a4c595173f9f7b53ac72d70a8189ad566cde02d81ac5acf7e09c50315c254b
f28257b2a3730294706b807646b803711fbda18090328ec985adfc654f0e0d5bb72eefae3945601217a4c595173f9f7b53ac72d70a8189ad39998b7f1e9e767e
e9f419af62bfe95ebc27f931268b4061c72e677679789a8974763235dc81d091f182b98fc749cfc2ab6a91e907f651e2fe9c0a56ac1647d19d6bedf9d0034ac8
5d078000650a8fa5c3773be6f632e249608c60e84e4520dd0794cbd97559f929d7503313cbdf0f42dddec70af0ca2d20c9ab9398c9185a897b828a0b3bb58d65
54653036f112a7e5706b807646b803719635ee95ea00d51c639842384662cfe1c2f5e47a2422c11462d766f77596a54b17a4c595173f9f7b69daa3a8be1c9c7c
8df0563ff6b12bcb706b807646b8037108abb75a1858ebbb353e8f2ac62895b3f79ed346fe02bf5d3934d3e765192634e4163e42c2393867209f01559f92242c
717cdf892ff6b6ffd811871cc3622e4a53e7b7d7fd04c659cfd44de642057e5a4b5bf70f550696cc06e7f1b863f167884b9ebfecbe8ef3fdef44ba065759f714
615a28c46d72374094fbbbfac28a5c5c164c9e232793a5b0e99f6ae89c8b7ae3cb0c35576a2623a24e1421513aeb62dacaf62c98eb29eccfc8551ea231071d1c
b0eb42ca922cce592fbfcc2b872ff946a30c69f2ad0860c8ce5ec34e6f8ad1cacef2f7fd91539e10d08d9c941a16e1242de074fb35dc5ff0f678c267c84f2c19
6fb17b3e36cbc8d0e71f71e1875841713934d3e765192634e4163e42c23938674720b59447cd63c63c9f7e88d6a8a0d6f67e2913ce4124fdabfdb32d42de9a8d
8f10d309634521e51a9a9eab4e0763eb03ac0089fc350106f0ac8bc015e08880cb0c35576a2623a24e1421513aeb62dacaf62c98eb29eccfc8551ea231071d1c
c9df73872fc60450dcf3cb9f8e545a356db0e7feab1ebedcbe5bcc36ba02f14950ed718e0983db6517a4c595173f9f7b53ac72d70a8189ad39998b7f1e9e767e
e8686e014b15db7684ae83d57dff2f352e4811f26b4ad52e55d71d89b5271d1bac450d20dd5966c7cfd44de642057e5a4b5bf70f550696cc345fedb3dff801a2
e0bee0f3fadd672460c210771409cb2e9e85c7d75c3b3f87dc1c366bd83c65f7383e44ab7bc2ec2664bcc0a497fc04ba99a1d75606970dc235a5ce2a989b791d
b90e0c5fe970b38760c210771409cb2e92fe7f16cd97a385f24bf58ddadd36c74b84da9a526f50928996186a7016e01159423a129c2540f0c6709d12ef7f397d
78dcde2aa4fabec0706b807646b803711fbda18090328ec9a41362112e13575c03d6c5d38e36ad2c24fdfd9bb2e10b0799a1d75606970dc235a5ce2a989b791d
2cfd781695004e38cb642c2277913551eed2126d7888f501592a2e7ef333966d32e3f727eb65d4ca605d2ec3c2b4952318495025d6d89424f7bfd975111047c3
9770d65f37d45166ee476aa600a7a23ed7503313cbdf0f42dddec70af0ca2d20c9ab9398c9185a89d3f222223dae97485e3f812a79759d70cbe3317409d56a01
5504f1c07e979e632d6050da6b4e3dfd6e62beb8d3b465a8cb0c35576a2623a24e1421513aeb62dacaf62c98eb29eccfc38bb70a87d0c93e7fc7d6c5f9e39216
$CDNENCFINISH
.ENDS LM2940-N_5P0_TRANS
*$
.SUBCKT LM2940-N_5P0_F1 1 2 3 4  
$CDNENCSTART
eee8c5c7a2bc4b01f045f303678664e7916da0bae22e8cb0bba041dd67c69ce448ea70148a9ac1670c8926c1ac5057c8ccfcd77bf87ca9dc4f8813c382e6645e
ae601cf82fbefc0c31820e631d1d1d74872d6da6e74e75eecfd44de642057e5a4b5bf70f550696cc06e7f1b863f167884b9ebfecbe8ef3fdef44ba065759f714
969b68e4450fa8bd6f31076d2b37e96b3a7bc5327c69eeaf223ce7cfbb6e26d9bf70c9fbff0bffd4d9860bb527ba399bcc9d03d0913b2f7253c5e97be1f98da3
$CDNENCFINISH
.ENDS LM2940-N_5P0_F1
*$
.SUBCKT COMPHYS_BASIC_GEN INP INM HYS OUT PARAMS: VDD=1 VSS=0 VTHRESH=0.5	
$CDNENCSTART
eee8c5c7a2bc4b01f045f303678664e7916da0bae22e8cb0bba041dd67c69ce448ea70148a9ac1670c8926c1ac5057c8ccfcd77bf87ca9dc4f8813c382e6645e
9132b7121104d4358be44c41ab888f41b6e3a1568843d867cfd44de642057e5a4b5bf70f550696cc06e7f1b863f167884b9ebfecbe8ef3fdef44ba065759f714
70d49a25931fcad5af5f0f227a33dfc56b574213c15e8d8904d73209bd6cb354e07469d76c73f504727902e71a3e75d8bb77e20fe987edd8d38aff4e12555a5d
d1579de13894cc53749d13634498f34b2814ec203481f38f6485690991963efc688dc2cfc32ec3a9609956094a2f05290f82827fc36822f07e157bb0bb7b4af5
c985c90e830fff9457e2c5aa80851370a0843499cab0f237abe0bcd93618b4a6e941baebfc5a0b9a4b7abe26522f83a4886ce8f98ab909076c747285cbd82912
1fdb31c906bbcd7763285b29082243913934d3e765192634e4163e42c23938674720b59447cd63c63c9f7e88d6a8a0d6f67e2913ce4124fdabfdb32d42de9a8d
13142c038a62aa150aa66cfdd7abddd717a4c595173f9f7b53ac72d70a8189ad566cde02d81ac5ac077308d874b1edce23d59790505dc0730955c36d787750a4
$CDNENCFINISH
.ENDS COMPHYS_BASIC_GEN
*$
.SUBCKT INV_BASIC_GEN A  Y PARAMS: VDD=1 VSS=0 VTHRESH=0.5 
$CDNENCSTART
eee8c5c7a2bc4b01f045f303678664e7916da0bae22e8cb0bba041dd67c69ce448ea70148a9ac1670c8926c1ac5057c8ccfcd77bf87ca9dc4f8813c382e6645e
f305b7cfa07651615a9037c8c42a602b94aebb18efc1b73c4a0534bc16c6b751d67091752c09698a1541fe9d381cc675040397452ddd04154f8813c382e6645e
97a44fd04201403ec4d5e8dbd1cb68c5cfd44de642057e5a4b5bf70f550696cc06e7f1b863f167884b9ebfecbe8ef3fd38c104d988ffd437806e6f8b4b594480
bd9831b9881f0b92e8f02e93fcf213a8d7503313cbdf0f42dddec70af0ca2d20c9ab9398c9185a89d3f222223dae97485e3f812a79759d70cbe3317409d56a01
02f2959404528fbd9ad2dc2e0af5de0e99a1d75606970dc2329ffca68bd72704a5cd0a6ea46fe42629c7cadee1d50f4aef6a6e722f2b3cd01d162c9494c7cb05
$CDNENCFINISH
.ENDS INV_BASIC_GEN
*$
