Version 4
SHEET 1 1104 784
WIRE 352 304 352 240
WIRE 848 320 848 256
WIRE -32 384 -32 320
WIRE 224 384 -32 384
WIRE -272 416 -272 336
WIRE -144 416 -144 320
WIRE -32 416 -32 384
WIRE 352 416 352 384
WIRE 496 416 352 416
WIRE 352 448 352 416
WIRE 496 528 496 416
WIRE 528 528 496 528
WIRE 848 528 848 400
WIRE 848 528 592 528
WIRE 960 528 848 528
WIRE -272 544 -272 496
WIRE -144 544 -144 496
WIRE -32 544 -32 496
WIRE 224 544 224 384
WIRE 336 544 336 512
WIRE 336 544 224 544
WIRE 528 544 496 544
WIRE 368 656 368 512
WIRE 496 656 496 544
FLAG -144 544 0
FLAG -144 320 VDD
FLAG -32 544 0
FLAG -32 320 JETSON_GPIO
FLAG 848 256 VDD
FLAG -272 544 0
FLAG -272 336 SWITCH
FLAG 496 656 SWITCH
FLAG 960 528 OUT
FLAG 352 240 VDD
FLAG 368 656 0
SYMBOL voltage -144 400 R0
SYMATTR InstName V1
SYMATTR Value 5
SYMBOL voltage -32 400 R0
SYMATTR InstName V2
SYMATTR Value PULSE(0 3.3 150u 1u 1u)
SYMBOL res 832 304 R0
SYMATTR InstName R2
SYMATTR Value 10k
SYMBOL voltage -272 400 R0
SYMATTR InstName V3
SYMATTR Value PULSE(5 0 100u 1u 1u)
SYMBOL Digital/or 560 480 R0
WINDOW 3 -8 30 Left 2
SYMATTR InstName A1
SYMATTR Value td=4.2n Vhigh=5 Ref=2.5
SYMBOL res 336 288 R0
SYMATTR InstName R1
SYMATTR Value 10k
SYMBOL AutoGenerated/BSS138_ZTX 352 480 M90
SYMATTR InstName U1
TEXT 272 768 Left 2 !.tran 200u
