Version 4
SHEET 1 1604 1008
WIRE 560 96 560 64
WIRE 560 208 560 176
WIRE 848 208 560 208
WIRE 1168 208 848 208
WIRE 560 240 560 208
WIRE 592 240 560 240
WIRE 560 288 512 288
WIRE 592 304 592 240
WIRE 592 304 576 304
WIRE 384 320 384 256
WIRE 512 320 384 320
WIRE 384 368 384 320
WIRE -1120 400 -1120 368
WIRE -992 400 -992 368
WIRE -864 400 -864 368
WIRE -720 400 -720 368
WIRE 384 496 384 448
WIRE 384 496 128 496
WIRE 560 496 560 288
WIRE 560 496 384 496
WIRE -1120 544 -1120 480
WIRE -992 544 -992 480
WIRE -864 544 -864 480
WIRE -720 544 -720 480
WIRE -720 832 -720 800
WIRE -720 992 -720 912
FLAG -864 544 0
FLAG -992 544 0
FLAG -992 368 +5V
IOPIN -992 368 Out
FLAG -864 368 +1.8V
IOPIN -864 368 Out
FLAG 560 64 +5V
IOPIN 560 64 In
FLAG 384 256 +1.8V
IOPIN 384 256 In
FLAG 848 208 5V_i2c
IOPIN 848 208 BiDir
FLAG 128 496 3.3V_i2c
IOPIN 128 496 BiDir
FLAG -720 544 0
FLAG -720 368 i2c_400khz_5V
IOPIN -720 368 Out
FLAG -720 992 0
FLAG -720 800 i2c_400khz_1.8V
IOPIN -720 800 Out
FLAG 1168 208 i2c_400khz_5V
IOPIN 1168 208 In
FLAG -48 496 i2c_400khz_1.8V
IOPIN -48 496 In
FLAG -1120 544 0
FLAG -1120 368 +3.3V
IOPIN -1120 368 Out
SYMBOL res 544 80 R0
SYMATTR InstName R1
SYMATTR Value 10k
SYMBOL res 368 352 R0
SYMATTR InstName R2
SYMATTR Value 10k
SYMBOL voltage -992 384 R0
SYMATTR InstName V1
SYMATTR Value 3.3
SYMBOL voltage -864 384 R0
SYMATTR InstName V2
SYMATTR Value 1.8
SYMBOL voltage -720 384 R0
SYMATTR InstName V3
SYMATTR Value PULSE(3.3 0 5u 300n 300n 0.6u 2.5u 5)
SYMBOL voltage -720 816 R0
SYMATTR InstName V4
SYMATTR Value PULSE(1.8 0 5u 300n 300n 0.6u 2.5u 5)
SYMBOL voltage -1120 384 R0
SYMATTR InstName V5
SYMATTR Value 3.3
SYMBOL AutoGenerated/BSS138_ZTX 544 304 R180
SYMATTR InstName U1
TEXT 856 376 Left 2 !.MODEL MOD1 NMOS VTO=1 RS=1.58 RD=0.0 IS=1E-15 KP=0.395\n    +CBD=53.5E-12 PB=1 LAMBDA=267E-6\n    .MODEL Dmod1 D IS=1.254E-13 N=1.0207 RS=0.222\n    .MODEL Dmod2 D CJO=40E-12\n    .MODEL SMOD1a VSWITCH RON=1e-2 ROFF=1e4  VON=-1 VOFF=1\n    .MODEL SMOD1b VSWITCH RON=1e-2 ROFF=1e4  VON=1 VOFF=-1
TEXT 280 600 Left 2 !.tran 20u
TEXT 584 344 Left 2 ;BSS138
TEXT -40 -48 Left 2 ;I2C timing characterization via fast mode
TEXT -568 856 Left 2 ;IMU (ICM-20948)
TEXT -600 416 Left 2 ;MCU (MKE14F512VLL16)
